12
-2.3226735498666108e+02 frame 7   xyz file generated by TeraChem
C	  -7.77602551	   1.35386431	  -0.10028360
C	  -6.94073728	   0.23287671	  -0.07696251
C	  -5.61368004	   0.34074850	  -0.50376822
C	  -5.12190560	   1.56968647	  -0.95389695
C	  -5.95718873	   2.69067741	  -0.97722110
C	  -7.28425029	   2.58281053	  -0.55041807
H	  -5.57303362	   3.65063291	  -1.32883415
H	  -7.93665029	   3.45846780	  -0.56858580
H	  -8.81255134	   1.26952185	   0.23319312
H	  -7.32489429	  -0.72707673	   0.27465241
H	  -4.96127742	  -0.53491503	  -0.48560344
H	  -4.08537560	   1.65403528	  -1.28737168