18
-3.8592298119309260e+02 frame 16   xyz file generated by TeraChem
C	  -5.48406736	   3.85500709	  -1.05326360
C	  -5.18459188	   2.47992816	  -0.87746366
C	  -3.91991743	   2.08762859	  -0.49492925
C	  -2.89432235	   3.04766182	  -0.26960038
C	  -3.19724443	   4.43897460	  -0.44767619
C	  -4.51277421	   4.80998654	  -0.84306236
H	  -4.74182390	   5.86993890	  -0.97750517
H	  -6.48947416	   4.15428313	  -1.35599442
H	  -5.96192756	   1.73220522	  -1.04680923
H	  -3.68696597	   1.02872692	  -0.35908902
C	  -1.57883656	   2.67666818	   0.12576943
C	  -0.60750304	   3.63164553	   0.33597433
C	  -0.90699584	   5.00670908	   0.16017077
C	  -2.17167161	   5.39903414	  -0.22235713
H	  -1.34975850	   1.61670516	   0.26022151
H	   0.39789298	   3.33236639	   0.63869519
H	  -0.12965026	   5.75444541	   0.32951211
H	  -2.40461789	   6.45791515	  -0.35819294