24
-5.3957249831478828e+02 frame 18   xyz file generated by TeraChem
C	  -5.30498693	   3.68813103	  -1.18660099
C	  -5.02502271	   2.32058662	  -0.88736300
C	  -3.79977177	   1.95493792	  -0.39096474
C	  -2.77660624	   2.92973428	  -0.16153192
C	  -3.06025971	   4.31516792	  -0.46464499
C	  -4.35210108	   4.65307986	  -0.98129947
H	  -4.56462898	   5.70008219	  -1.20960715
H	  -6.28569294	   3.96119407	  -1.58110025
H	  -5.79530079	   1.56567700	  -1.05692267
H	  -3.58392071	   0.90894658	  -0.16134359
C	  -1.51466705	   2.58666413	   0.34500802
C	  -0.52021573	   3.55053055	   0.56560247
C	  -0.80387422	   4.93596316	   0.26248827
C	  -2.06581585	   5.27903470	  -0.24404079
H	  -1.30021076	   1.53941666	   0.57422258
H	  -2.28027270	   6.32628462	  -0.47325288
C	   0.77162909	   3.21260716	   1.08222317
C	   1.72454075	   4.17755852	   1.28748770
C	   1.44456331	   5.54509993	   0.98824604
C	   0.21931261	   5.91075382	   0.49189384
H	   2.21486394	   6.30000462	   1.15777372
H	   0.00345461	   6.95674797	   0.26226897
H	   0.98416232	   2.16561076	   1.31052984
H	   2.70525159	   3.90448593	   1.68194783