38
-4.7298235779668084e+02 frame 24   xyz file generated by TeraChem
C	  32.20390716	   2.86613544	   7.95334134
C	  30.90695695	   2.19885785	   8.41448634
H	  33.04776316	   2.61516964	   8.61568553
H	  32.10560613	   3.96509198	   7.94008677
H	  32.47486295	   2.54819400	   6.93215510
C	  29.70806904	   2.52070134	   7.51721651
H	  30.67903558	   2.50969482	   9.45078992
H	  31.04862152	   1.10286859	   8.45256398
C	  28.40267668	   1.86026570	   7.96915490
H	  29.93635005	   2.20902476	   6.48031404
H	  29.56858452	   3.61781470	   7.47781763
C	  27.20209778	   2.18399906	   7.07451664
H	  28.17718746	   2.17094603	   9.00683092
H	  28.54284243	   0.76333018	   8.00758761
C	  25.89944775	   1.52375671	   7.53607957
H	  27.42450369	   1.87075252	   6.03695538
H	  27.06238392	   3.28090792	   7.03444934
C	  24.68997710	   1.84437442	   6.65251005
H	  25.68271701	   1.83535299	   8.57531099
H	  26.04129038	   0.42711576	   7.57489340
C	  23.39210247	   1.18392739	   7.12722250
H	  24.90210745	   1.52928804	   5.61338795
H	  24.54782951	   2.94087980	   6.61167208
C	  22.17574493	   1.50311770	   6.25276157
H	  23.18334355	   1.49711300	   8.16771234
H	  23.53405645	   0.08726546	   7.16673216
C	  20.88268145	   0.84223751	   6.73859298
H	  22.38036376	   1.18697125	   5.21236461
H	  22.03292949	   2.59958794	   6.21177893
C	  19.65856021	   1.15640398	   5.87360342
H	  20.68053336	   1.15749738	   7.77995840
H	  21.02600303	  -0.25433920	   6.77945876
C	  18.37766143	   0.48900700	   6.37751494
H	  19.85679349	   0.83934112	   4.83306689
H	  19.51299193	   2.25176802	   5.83285553
H	  18.48006827	  -0.60948764	   6.39730641
H	  17.51388164	   0.73160556	   5.73816520
H	  18.13509618	   0.81440133	   7.40359933