41
-5.1229734656086043e+02 frame 25   xyz file generated by TeraChem
C	  32.11064492	   2.83576621	   7.95499400
C	  30.81706726	   2.16250950	   8.41735358
H	  32.96078198	   2.57377004	   8.60488178
H	  32.01321895	   3.93486448	   7.95969729
H	  32.37131171	   2.53404915	   6.92620859
C	  29.61188078	   2.50390650	   7.53621379
H	  30.59974073	   2.45555971	   9.46107682
H	  30.95696042	   1.06579304	   8.43409480
C	  28.30629864	   1.83551021	   7.97676619
H	  29.83359937	   2.21576547	   6.49103828
H	  29.47280950	   3.60171815	   7.52162463
C	  27.10941984	   2.19213789	   7.09001807
H	  28.08414601	   2.11927827	   9.02284886
H	  28.44173698	   0.73735591	   7.98437028
C	  25.79896975	   1.51903586	   7.50955446
H	  27.33878381	   1.91867586	   6.04280608
H	  26.97177464	   3.29001139	   7.09012722
C	  24.60866848	   1.89088825	   6.62001757
H	  25.56969443	   1.78592105	   8.55842486
H	  25.93326935	   0.42084035	   7.50031991
C	  23.29659655	   1.20517655	   7.01395856
H	  24.84732326	   1.63952085	   5.56936380
H	  24.46752503	   2.98809717	   6.64145348
C	  22.11325674	   1.59129098	   6.12143421
H	  23.05672903	   1.44941806	   8.06596529
H	  23.43448809	   0.10783259	   6.98306319
C	  20.80093473	   0.89047109	   6.48658075
H	  22.36312618	   1.36506407	   5.06766585
H	  21.96593652	   2.68696558	   6.16622582
C	  19.62593164	   1.29177516	   5.59016985
H	  20.54913222	   1.11008526	   7.54132362
H	  20.94463836	  -0.20532079	   6.43263483
C	  18.31075121	   0.58392025	   5.92962781
H	  19.88577631	   1.08554306	   4.53447044
H	  19.47652487	   2.38641857	   5.65397548
C	  17.14995526	   1.00472235	   5.02646892
H	  18.05053204	   0.78510572	   6.98520805
H	  18.45708674	  -0.50973112	   5.85765621
H	  16.95327866	   2.08745614	   5.10659676
H	  16.21894194	   0.47665774	   5.28756378
H	  17.36999699	   0.78898328	   3.96697634