47
-5.9092748084616392e+02 frame 25   xyz file generated by TeraChem
C	  32.16214041	   2.92330087	   7.76138370
C	  30.90735270	   2.19411861	   8.24562952
H	  33.05085490	   2.63224460	   8.34381737
H	  32.04899715	   4.01726436	   7.85017813
H	  32.37040619	   2.69978114	   6.70114050
C	  29.64811725	   2.57182009	   7.46015102
H	  30.74611094	   2.40882698	   9.31816968
H	  31.06524722	   1.10202202	   8.17673945
C	  28.38064932	   1.85142925	   7.92922742
H	  29.81273948	   2.35732691	   6.38702092
H	  29.49252793	   3.66529874	   7.52793244
C	  27.13000061	   2.23331875	   7.13161978
H	  28.21174791	   2.06785315	   9.00111552
H	  28.53583304	   0.75789708	   7.86358478
C	  25.85705210	   1.51455930	   7.58883963
H	  27.30365490	   2.01891789	   6.06007047
H	  26.97574079	   3.32693202	   7.19790684
C	  24.61400358	   1.89272993	   6.77778353
H	  25.67738382	   1.73344310	   8.65836478
H	  26.01364245	   0.42107033	   7.52714192
C	  23.33787628	   1.17024485	   7.22040982
H	  24.79937815	   1.67819096	   5.70828863
H	  24.45502337	   2.98578081	   6.84153687
C	  22.10582697	   1.54214507	   6.38979836
H	  23.14221347	   1.39116134	   8.28668575
H	  23.49910457	   0.07712765	   7.16395816
C	  20.82620872	   0.81445812	   6.81334466
H	  22.30940486	   1.32719452	   5.32374830
H	  21.94175820	   2.63467438	   6.44971476
C	  19.60457649	   1.17729655	   5.96372997
H	  20.61274286	   1.03656290	   7.87590120
H	  20.99394111	  -0.27792125	   6.76161364
C	  18.32311672	   0.44363393	   6.37138073
H	  19.82375923	   0.96063410	   4.90110382
H	  19.43265191	   2.26894655	   6.01827102
C	  17.11221065	   0.80255880	   5.50524763
H	  18.09512185	   0.66549449	   7.43105466
H	  18.49623409	  -0.64812325	   6.32287919
C	  15.82551164	   0.07012621	   5.89743759
H	  17.34492370	   0.58361554	   4.44580963
H	  16.93827893	   1.89421486	   5.55553596
C	  14.62952371	   0.43869223	   5.01746509
H	  15.58913508	   0.29041003	   6.95475534
H	  15.99824054	  -1.02080537	   5.84790995
H	  14.40856863	   1.51821062	   5.07396802
H	  13.71976759	  -0.10380903	   5.32049544
H	  14.82364819	   0.19848913	   3.95817822