53
-6.6955767984469378e+02 frame 42   xyz file generated by TeraChem
C	  32.06945956	   2.91445456	   7.74627219
C	  30.81326814	   2.18628763	   8.23211914
C	  33.34127803	   2.55049396	   8.51854485
H	  31.90291244	   4.00652441	   7.81194334
H	  32.22047790	   2.69719278	   6.67166317
C	  29.55116295	   2.55968788	   7.44845345
H	  30.65656668	   2.40557617	   9.30522017
H	  30.97594266	   1.09400967	   8.16513568
C	  28.28446142	   1.83975340	   7.92077611
H	  29.71232886	   2.34304813	   6.37533306
H	  29.39264690	   3.65281776	   7.51258012
C	  27.03444096	   2.22125405	   7.12158820
H	  28.11543841	   2.05871682	   8.99201633
H	  28.43885506	   0.74609252	   7.85773203
C	  25.76024968	   1.50463294	   7.57900494
H	  27.20981316	   2.00485678	   6.05074512
H	  26.88223035	   3.31525315	   7.18636686
C	  24.51751834	   1.88092004	   6.76640898
H	  25.57970359	   1.72664731	   8.64773645
H	  25.91628689	   0.41084741	   7.52003964
C	  23.24181294	   1.15867075	   7.21121729
H	  24.70320919	   1.66411256	   5.69741336
H	  24.35820839	   2.97408650	   6.82787319
C	  22.00946241	   1.52679112	   6.37947321
H	  23.04635480	   1.38330440	   8.27675629
H	  23.40456620	   0.06557172	   7.15857106
C	  20.72931302	   0.80031236	   6.80328950
H	  22.21345717	   1.30905158	   5.31405298
H	  21.84433915	   2.61928039	   6.43668028
C	  19.51014977	   1.16203142	   5.94981039
H	  20.51308186	   1.02590440	   7.86457657
H	  20.89584513	  -0.29240239	   6.75502511
C	  18.22790009	   0.43032048	   6.35718120
H	  19.73133390	   0.94252790	   4.88818243
H	  19.33885375	   2.25388669	   6.00136832
C	  17.01860389	   0.78738635	   5.48905363
H	  17.99826409	   0.65548355	   7.41575857
H	  18.40017768	  -0.66165045	   6.31149171
C	  15.73161649	   0.05684008	   5.88231119
H	  17.25134275	   0.56536532	   4.43024600
H	  16.84450525	   1.87920049	   5.53598566
C	  14.53924018	   0.42701884	   4.99909058
H	  15.49395583	   0.27982468	   6.93884973
H	  15.90271103	  -1.03454378	   5.83492505
H	  14.32284113	   1.50758169	   5.05420483
H	  13.62708780	  -0.11251637	   5.29976383
H	  14.73757001	   0.18561240	   3.94082390
C	  34.58350119	   3.28911967	   8.01844225
H	  33.51058406	   1.45986307	   8.45065657
H	  33.19167782	   2.76806452	   9.59230053
H	  34.78131915	   3.06234209	   6.95701212
H	  35.48120399	   3.00895978	   8.59276016
H	  34.45941797	   4.38206066	   8.10419261