56
-7.0887278189838958e+02 frame 52   xyz file generated by TeraChem
C	  31.99998928	   2.94028587	   7.69829552
C	  30.74181117	   2.21411782	   8.18433269
C	  33.26131460	   2.56598530	   8.48186505
H	  31.83930690	   4.03307302	   7.76215694
H	  32.15694764	   2.72083205	   6.62516368
C	  29.47436444	   2.57896072	   7.40670245
H	  30.58652321	   2.43446447	   9.25735420
H	  30.90557786	   1.12179868	   8.12149575
C	  28.21787968	   1.85035422	   7.89439179
H	  29.62898709	   2.35879931	   6.33343691
H	  29.30953114	   3.67128386	   7.46914167
C	  26.95640408	   2.21648473	   7.10670638
H	  28.05871375	   2.07275511	   8.96653092
H	  28.38286128	   0.75783549	   7.83478769
C	  25.69067922	   1.49298797	   7.57776396
H	  27.12249585	   1.99639796	   6.03510522
H	  26.79513502	   3.30940754	   7.16730272
C	  24.44326249	   1.86113970	   6.76861531
H	  25.51539285	   1.71898718	   8.64654829
H	  25.85280806	   0.39996269	   7.52301619
C	  23.16630316	   1.14202389	   7.21351350
H	  24.62696961	   1.64047336	   5.70001964
H	  24.28184193	   2.95414848	   6.82555610
C	  21.93953380	   1.51240773	   6.37442569
H	  22.96536849	   1.37049458	   8.27732287
H	  23.32432270	   0.04801806	   7.16455055
C	  20.65695920	   0.78989481	   6.79677775
H	  22.14794890	   1.29112686	   5.31049898
H	  21.77805752	   2.60575216	   6.42735064
C	  19.43994371	   1.14964802	   5.93927392
H	  20.44023880	   1.01987014	   7.85694001
H	  20.82413530	  -0.30293044	   6.75321798
C	  18.15469867	   0.42134796	   6.34599599
H	  19.66415092	   0.92606189	   4.87920563
H	  19.27095505	   2.24205877	   5.98662514
C	  16.94702713	   0.77802248	   5.47343570
H	  17.92438864	   0.65039432	   7.40366396
H	  18.32655626	  -0.67099996	   6.30492706
C	  15.65631164	   0.05131082	   5.86588259
H	  17.18334668	   0.55225984	   4.41618425
H	  16.77712621	   1.87066766	   5.51679241
C	  14.45963109	   0.41582229	   4.98439569
H	  15.41855839	   0.27746419	   6.92171280
H	  15.82646813	  -1.04031786	   5.82232305
H	  14.23712004	   1.49525955	   5.03565039
H	  13.55022706	  -0.12558458	   5.29151616
H	  14.65106373	   0.17002892	   3.92589744
C	  34.52868367	   3.28330008	   8.00762773
H	  33.41750139	   1.47222162	   8.41823091
H	  33.10135616	   2.78476425	   9.55489661
H	  34.69306042	   3.06525298	   6.93607284
C	  35.77472100	   2.89185771	   8.80381978
H	  34.37571240	   4.37642059	   8.07423073
H	  35.97206613	   1.80899969	   8.72751705
H	  35.65598506	   3.12948061	   9.87474261
H	  36.67148505	   3.42035485	   8.44275255