59
-7.4818791633427827e+02 frame 54   xyz file generated by TeraChem
C	  31.91540881	   2.89275214	   7.72862850
C	  30.65154712	   2.17309696	   8.20826664
C	  33.17775873	   2.51961810	   8.51202622
H	  31.75753943	   3.98597643	   7.79131166
H	  32.07406330	   2.67277804	   6.65594499
C	  29.39336223	   2.54931017	   7.42015920
H	  30.48998101	   2.39380313	   9.28026764
H	  30.80774258	   1.07962179	   8.14527742
C	  28.12728487	   1.83019061	   7.89607791
H	  29.55605672	   2.32981307	   6.34790564
H	  29.23748155	   3.64295729	   7.48235338
C	  26.87313703	   2.20522801	   7.10084657
H	  27.96189606	   2.05230427	   8.96730337
H	  28.28459993	   0.73668685	   7.83612392
C	  25.60232619	   1.48662997	   7.56489817
H	  27.04385346	   1.98587479	   6.02985602
H	  26.71677659	   3.29881878	   7.16236437
C	  24.35767682	   1.85786745	   6.75315770
H	  25.42307340	   1.71164236	   8.63322247
H	  25.76012353	   0.39291777	   7.50955393
C	  23.08256672	   1.13623618	   7.19983183
H	  24.54202552	   1.63785026	   5.68460613
H	  24.19618190	   2.95086521	   6.81109440
C	  21.85267846	   1.50235859	   6.36392413
H	  22.88443724	   1.36441679	   8.26414642
H	  23.24461463	   0.04285852	   7.15101925
C	  20.57204216	   0.77704839	   6.78770611
H	  22.05947987	   1.28141489	   5.29962304
H	  21.68812026	   2.59518416	   6.41703627
C	  19.35478535	   1.13562365	   5.93011387
H	  20.35487746	   1.00654615	   7.84801426
H	  20.74045907	  -0.31563727	   6.74399868
C	  18.06972553	   0.40659433	   6.33512836
H	  19.57989328	   0.91278032	   4.86998459
H	  19.18493601	   2.22796932	   5.97764108
C	  16.86352563	   0.76390755	   5.46119541
H	  17.83782684	   0.63482417	   7.39256395
H	  18.24152292	  -0.68568554	   6.29327700
C	  15.57177367	   0.03804206	   5.85057453
H	  17.10098043	   0.53873223	   4.40414072
H	  16.69342620	   1.85650834	   5.50482686
C	  14.37970786	   0.40672471	   4.96518998
H	  15.33125041	   0.26345578	   6.90594260
H	  15.74002296	  -1.05395017	   5.80589575
H	  14.16067826	   1.48693208	   5.01716744
H	  13.46773139	  -0.13252325	   5.26770289
H	  14.57560500	   0.16222075	   3.90719699
C	  34.43687791	   3.24464404	   8.02770307
H	  33.33796378	   1.42670728	   8.44840079
H	  33.02005755	   2.73902003	   9.58505441
H	  34.59370751	   3.02559369	   6.95419871
C	  35.70375092	   2.87655803	   8.80568919
H	  34.27565376	   4.33759899	   8.09168525
H	  35.86672402	   1.78491473	   8.74006559
H	  35.54888720	   3.09491055	   9.87854325
C	  36.95212104	   3.60929362	   8.31118544
H	  37.15544660	   3.38184537	   7.25086361
H	  37.84550020	   3.32532632	   8.89004712
H	  36.83385520	   4.70305150	   8.39557558