8
-7.9830620692001190e+01 frame 26   xyz file generated by TeraChem
C	  34.01076234	   2.67992463	   8.50691221
C	  32.59364102	   2.20800989	   8.83033987
H	  34.31749414	   3.51330610	   9.16044975
H	  34.09136004	   3.03124280	   7.46488000
H	  34.74629235	   1.86925824	   8.63936214
H	  31.85810780	   3.01869169	   8.69783673
H	  32.51304472	   1.85678961	   9.87241828
H	  32.28687863	   1.37453285	   8.17692309