62
-7.8750326414251072e+02 frame 146   xyz file generated by TeraChem
C	  31.82232737	   2.86777746	   7.71184204
C	  30.54388379	   2.20081529	   8.22816542
C	  33.07212914	   2.53711481	   8.53298966
H	  31.67854901	   3.96469147	   7.69255845
H	  31.98998113	   2.56856295	   6.65976914
C	  29.30341976	   2.52480559	   7.39026606
H	  30.36798299	   2.50804294	   9.27648031
H	  30.68916958	   1.10430803	   8.25634282
C	  28.01863936	   1.86385824	   7.89806215
H	  29.48269094	   2.21539512	   6.34313108
H	  29.16106730	   3.62159339	   7.35849939
C	  26.78816047	   2.17909319	   7.04204403
H	  27.83006869	   2.18179600	   8.94092815
H	  28.16342979	   0.76773708	   7.93917828
C	  25.49850343	   1.51979821	   7.53986748
H	  26.98059130	   1.86118176	   5.99978455
H	  26.64449032	   3.27536250	   6.99964405
C	  24.27772429	   1.82553969	   6.66671175
H	  25.29722422	   1.84564687	   8.57786609
H	  25.64485103	   0.42432934	   7.59143094
C	  22.98374598	   1.16638425	   7.15336069
H	  24.48384553	   1.50095568	   5.62925952
H	  24.13211532	   2.92111093	   6.61483948
C	  21.77158034	   1.46375495	   6.26515300
H	  22.76963986	   1.49811525	   8.18688255
H	  23.13168911	   0.07149057	   7.21321385
C	  20.47552898	   0.80323169	   6.74441237
H	  21.98872789	   1.13362739	   5.23170854
H	  21.62296533	   2.55856976	   6.20569796
C	  19.26718557	   1.09454764	   5.84910837
H	  20.25431308	   1.13735850	   7.77566024
H	  20.62583971	  -0.29105893	   6.80868557
C	  17.96989463	   0.43649403	   6.32862203
H	  19.48825599	   0.75804001	   4.81855978
H	  19.11816763	   2.18889695	   5.78234317
C	  16.76303805	   0.72466308	   5.43070457
H	  17.74753364	   0.77527716	   7.35820165
H	  18.11965511	  -0.65765947	   6.39775367
C	  15.46405630	   0.07039383	   5.91100647
H	  16.98370931	   0.38303839	   4.40152960
H	  16.61395030	   1.81886738	   5.35881810
C	  14.26628703	   0.36281452	   5.00562713
H	  15.24207650	   0.41373424	   6.93845097
H	  15.61258614	  -1.02289299	   5.98430689
H	  14.06792833	   1.44631346	   4.94151231
H	  13.34925368	  -0.12179033	   5.37726308
H	  14.44276986	  -0.00035830	   3.97880403
C	  34.34455012	   3.21120528	   8.01113206
H	  33.21974867	   1.44069169	   8.54822984
H	  32.90650847	   2.83312160	   9.58621929
H	  34.50420213	   2.92017495	   6.95550279
C	  35.60027497	   2.87682655	   8.82102142
H	  34.19819687	   4.30790178	   8.00117246
H	  35.74987910	   1.78035579	   8.82785850
H	  35.44157208	   3.16559465	   9.87755074
C	  36.86991898	   3.55550375	   8.29808594
H	  37.02586014	   3.26980225	   7.24123516
C	  38.12093859	   3.21172492	   9.10822381
H	  36.72129186	   4.65123827	   8.29484433
H	  38.31933839	   2.12643708	   9.09679498
H	  38.01099760	   3.51457655	  10.16351413
H	  39.01433477	   3.71735443	   8.70795619