65
-8.2681812954849306e+02 frame 67   xyz file generated by TeraChem
C	  31.71238387	   2.87935067	   7.68878974
C	  30.45004680	   2.15969608	   8.17324882
C	  32.97171400	   2.50444638	   8.47617250
H	  31.55472966	   3.97288873	   7.74847744
H	  31.87081227	   2.65601604	   6.61666668
C	  29.18701258	   2.52972959	   7.39006503
H	  30.29338525	   2.38300031	   9.24550197
H	  30.60957054	   1.06651386	   8.11319049
C	  27.92426925	   1.80903104	   7.87318529
H	  29.34483401	   2.30735057	   6.31771468
H	  29.02755860	   3.62295816	   7.44956760
C	  26.66665128	   2.17910887	   7.08140449
H	  27.76154111	   2.03385851	   8.94426095
H	  28.08266310	   0.71553759	   7.81567662
C	  25.39907380	   1.45878317	   7.55196624
H	  26.83403693	   1.95703107	   6.01038776
H	  26.50776349	   3.27248238	   7.14003482
C	  24.15331894	   1.82596291	   6.73992853
H	  25.22254270	   1.68764576	   8.61997461
H	  25.56009826	   0.36535707	   7.50045756
C	  22.87703950	   1.10601219	   7.18655982
H	  24.33956453	   1.60313442	   5.67225900
H	  23.99285200	   2.91926716	   6.79468524
C	  21.64863537	   1.46878925	   6.34639107
H	  22.67663745	   1.33834900	   8.24953148
H	  23.03932576	   0.01251988	   7.14211119
C	  20.36591131	   0.74530590	   6.76795618
H	  21.85792134	   1.24437333	   5.28333794
H	  21.48334761	   2.56171201	   6.39519832
C	  19.15324012	   1.10294648	   5.90339433
H	  20.14398993	   0.97836198	   7.82646924
H	  20.53302082	  -0.34768493	   6.72830761
C	  17.86436302	   0.37824919	   6.30252425
H	  19.38284779	   0.87648573	   4.84503403
H	  18.98434675	   2.19553194	   5.94677473
C	  16.66439710	   0.73748707	   5.42123602
H	  17.62569682	   0.60883593	   7.35798196
H	  18.03164424	  -0.71481906	   6.26335048
C	  15.37163228	   0.01412741	   5.81012558
H	  16.90578251	   0.50876776	   4.36573024
H	  16.49659479	   1.83066057	   5.46109534
C	  14.17947913	   0.37951751	   4.92406832
H	  15.13119313	   0.24279156	   6.86472483
H	  15.54016930	  -1.07782564	   5.76872157
H	  13.95940471	   1.45958997	   4.97320071
H	  13.26878428	  -0.16017170	   5.22929627
H	  14.37516361	   0.13191059	   3.86677011
C	  34.23892115	   3.21960567	   7.99899260
H	  33.12661857	   1.41061832	   8.41611023
H	  32.81067377	   2.72703650	   9.54800878
H	  34.40243892	   2.99639464	   6.92768592
C	  35.49348217	   2.84024903	   8.79178617
H	  34.08502915	   4.31352815	   8.05985988
H	  35.64606587	   1.74615004	   8.72982580
H	  35.32730213	   3.06144129	   9.86313734
C	  36.76223562	   3.55508669	   8.31890117
H	  36.92750502	   3.33392175	   7.24722528
C	  38.01877706	   3.17811501	   9.10948518
H	  36.60943125	   4.64934588	   8.38078495
H	  38.17493735	   2.08526240	   9.04638096
H	  37.85502983	   3.39887246	  10.18055716
C	  39.27640465	   3.90190707	   8.62525436
H	  39.48659541	   3.67270156	   7.56662311
H	  40.16299781	   3.61194013	   9.21148023
H	  39.16518259	   4.99656882	   8.70767345