74
-9.4476071248703602e+02 frame 211   xyz file generated by TeraChem
C	  31.56018794	   2.50035066	   7.91859505
C	  30.19081152	   2.01053693	   8.39809384
C	  32.69996097	   2.17356821	   8.88863938
H	  31.52257760	   3.59343191	   7.75186718
H	  31.78267804	   2.05361375	   6.93095960
C	  29.03759691	   2.34509884	   7.44674944
H	  29.97666222	   2.44055746	   9.39485179
H	  30.23026688	   0.91486385	   8.54739670
C	  27.68736762	   1.79253677	   7.91249754
H	  29.26844118	   1.94800474	   6.44014992
H	  28.96637437	   3.44280040	   7.32820269
C	  26.51586658	   2.11953228	   6.98097487
H	  27.46438442	   2.17925097	   8.92498360
H	  27.76562787	   0.69450716	   8.02334739
C	  25.18632334	   1.51969420	   7.44812881
H	  26.74467177	   1.75369747	   5.96208089
H	  26.41320867	   3.21736761	   6.89128057
C	  23.99352210	   1.84784418	   6.54528611
H	  24.96978996	   1.86943001	   8.47524983
H	  25.29130055	   0.42076068	   7.52269834
C	  22.68213671	   1.21660551	   7.02179294
H	  24.20958108	   1.50886719	   5.51445084
H	  23.87139490	   2.94567749	   6.48228905
C	  21.47536758	   1.52898933	   6.13207908
H	  22.46930727	   1.55310753	   8.05420320
H	  22.80979299	   0.11922882	   7.08518835
C	  20.18123603	   0.86742585	   6.61449797
H	  21.69048340	   1.20226598	   5.09717118
H	  21.33184781	   2.62475174	   6.07880656
C	  18.96307643	   1.15039944	   5.73087630
H	  19.96558825	   1.19828982	   7.64788985
H	  20.33657384	  -0.22630762	   6.67695394
C	  17.68592828	   0.45969822	   6.21877124
H	  19.18054399	   0.82832132	   4.69502068
H	  18.79293512	   2.24233806	   5.67776649
C	  16.46043432	   0.72340577	   5.33984536
H	  17.46907076	   0.78432730	   7.25413723
H	  17.86369030	  -0.63088193	   6.27695043
C	  15.19059510	   0.01799059	   5.82588894
H	  16.67924075	   0.40532573	   4.30272592
H	  16.27363020	   1.81295599	   5.28780999
C	  13.97154394	   0.28867792	   4.94296961
H	  14.97371666	   0.33406162	   6.86303013
H	  15.37597612	  -1.07101655	   5.87560159
H	  13.73887894	   1.36649921	   4.90218085
H	  13.07549516	  -0.23171490	   5.31729106
H	  14.14554298	  -0.04923241	   3.90717393
C	  34.08703652	   2.57552739	   8.37720794
H	  32.69445901	   1.08822488	   9.10397014
H	  32.50682818	   2.67157096	   9.85757921
H	  34.29419364	   2.03941226	   7.43116401
C	  35.21147461	   2.28002741	   9.37764929
H	  34.08001536	   3.65003547	   8.12031365
H	  35.13534486	   1.22251354	   9.68935239
H	  35.04969431	   2.87747737	  10.29469375
C	  36.95755861	   4.00455855	   8.56296000
H	  36.23098904	   4.40008808	   7.83289949
C	  36.63330473	   2.53336544	   8.85332310
H	  36.81253069	   4.59758581	   9.48637555
H	  36.79198800	   1.93942830	   7.93256145
H	  37.35130908	   2.14095220	   9.59352002
C	  38.37328103	   4.25088981	   8.01833642
H	  38.52260416	   3.63507027	   7.11124479
C	  39.50960669	   3.97260243	   9.00976985
H	  38.44599404	   5.30193270	   7.68535287
H	  39.48077813	   2.91708027	   9.33475484
H	  39.34970149	   4.57615213	   9.92377873
C	  40.90115177	   4.27489784	   8.44315170
H	  41.05894728	   3.67247311	   7.52972009
C	  42.03210085	   4.00329621	   9.43718044
H	  40.94049160	   5.33097536	   8.11817454
H	  42.05300851	   2.94285559	   9.74173813
H	  41.91095903	   4.60561769	  10.35339067
H	  43.01717404	   4.24574457	   9.00743824