77
-9.8404128101945867e+02 frame 305   xyz file generated by TeraChem
C	  31.74593136	   2.68858878	   8.32368588
C	  30.49589757	   1.83388740	   8.55301760
C	  33.01831328	   2.10230887	   8.94107163
H	  31.57277568	   3.70328335	   8.72936675
H	  31.90072057	   2.82223061	   7.23627087
C	  29.24480731	   2.37843627	   7.85791054
H	  30.30579437	   1.74715108	   9.63952897
H	  30.68887377	   0.80374844	   8.19822396
C	  27.98406872	   1.54607042	   8.10844601
H	  29.43397307	   2.43656837	   6.76928674
H	  29.06431254	   3.41930007	   8.18703389
C	  26.75315245	   2.05333304	   7.35124376
H	  27.76689536	   1.53013624	   9.19326534
H	  28.17782668	   0.49431059	   7.82480205
C	  25.47996389	   1.24919857	   7.62932314
H	  26.96369366	   2.03928785	   6.26511348
H	  26.57684106	   3.11482551	   7.60897899
C	  24.26374554	   1.72874499	   6.83118934
H	  25.24920895	   1.29443494	   8.71040840
H	  25.66542536	   0.18166618	   7.40511912
C	  22.97531297	   0.96375903	   7.14762169
H	  24.48263018	   1.64684091	   5.74976613
H	  24.10240548	   2.80624997	   7.02429568
C	  21.77160973	   1.41224777	   6.31337842
H	  22.73909018	   1.07935299	   8.22227329
H	  23.14296607	  -0.11858766	   6.99103696
C	  20.46456327	   0.70856143	   6.69008271
H	  21.98556843	   1.23887610	   5.24180348
H	  21.63975627	   2.50554837	   6.42070855
C	  19.27520873	   1.10255831	   5.80986882
H	  20.22587701	   0.92924988	   7.74756384
H	  20.60849263	  -0.38716221	   6.63675787
C	  17.95485379	   0.45433687	   6.23586353
H	  19.49455741	   0.83210510	   4.75962882
H	  19.16091837	   2.20305153	   5.81967746
C	  16.77368405	   0.80579625	   5.32766488
H	  17.72046579	   0.75631709	   7.27409999
H	  18.07930111	  -0.64471842	   6.26358788
C	  15.44452065	   0.19046266	   5.77443292
H	  16.99805422	   0.47790065	   4.29487378
H	  16.66598506	   1.90600157	   5.27677507
C	  14.27779233	   0.53441545	   4.84714531
H	  15.21417690	   0.53029595	   6.80116031
H	  15.55461364	  -0.90793523	   5.83781413
H	  14.12423317	   1.62533040	   4.78608767
H	  13.33493747	   0.08394480	   5.19611090
H	  14.46207340	   0.17074724	   3.82184583
C	  34.25878081	   2.98159585	   8.75343297
H	  33.20874483	   1.10503297	   8.50098310
H	  32.85690186	   1.92721163	  10.02155239
H	  34.37220051	   3.23248070	   7.68180759
C	  35.55101235	   2.33065900	   9.25604502
H	  34.10447481	   3.94569230	   9.27368636
H	  35.72801626	   1.39788861	   8.68831285
H	  35.41968550	   2.02207793	  10.31041096
C	  36.18891155	   5.85216829	   5.23179052
H	  35.82350686	   5.45132599	   4.28196481
C	  36.78441184	   3.23201844	   9.14299187
H	  35.43540934	   6.07417923	   5.99265465
H	  36.63526567	   4.13142987	   9.76958860
H	  36.87477533	   3.59920960	   8.10359054
C	  37.48756903	   6.05980516	   5.45158354
H	  38.24161618	   5.83791593	   4.69108350
C	  38.08968643	   2.54001764	   9.54989635
H	  37.85202812	   6.46119555	   6.40138369
H	  38.24707859	   1.65505151	   8.90501223
H	  37.99158255	   2.14864275	  10.58029187
C	  39.32143826	   3.44713821	   9.46941743
H	  39.40904688	   3.85105566	   8.44282893
C	  40.63053080	   2.74727632	   9.84956289
H	  39.17323960	   4.32450121	  10.12713538
H	  40.77857629	   1.87178478	   9.19096543
H	  40.54220074	   2.34249115	  10.87467692
C	  41.85468323	   3.66125932	   9.76797055
H	  41.98982115	   4.05951910	   8.74782739
H	  42.77859089	   3.12707794	  10.04184465
H	  41.75482269	   4.52384713	  10.44851888