80
-1.0233908640584129e+03 frame 276   xyz file generated by TeraChem
C	  31.22324853	   2.96365907	   7.45626392
C	  30.00361470	   2.23237695	   8.02579379
C	  32.51528461	   2.75119606	   8.25029434
H	  31.00395717	   4.04712098	   7.40648345
H	  31.38329065	   2.64283542	   6.40937856
C	  28.72334215	   2.48390975	   7.22376791
H	  29.84606831	   2.54355239	   9.07590361
H	  30.20929289	   1.14586096	   8.06053862
C	  27.48254061	   1.76918545	   7.76721783
H	  28.88783144	   2.17661523	   6.17352729
H	  28.52614425	   3.57214963	   7.18902679
C	  26.22253231	   2.04274674	   6.94076239
H	  27.30886333	   2.07856002	   8.81520429
H	  27.67039949	   0.67941510	   7.80088057
C	  24.95926198	   1.35305211	   7.46378695
H	  26.40114155	   1.72852150	   5.89484837
H	  26.04623465	   3.13430610	   6.89857389
C	  23.72160733	   1.64054500	   6.60881262
H	  24.76902827	   1.67461638	   8.50518434
H	  25.12865147	   0.26081524	   7.51076800
C	  22.43500572	   0.98272159	   7.11520458
H	  23.91488898	   1.30956408	   5.57085142
H	  23.56903788	   2.73490134	   6.54984356
C	  21.21820265	   1.28538024	   6.23561915
H	  22.23276716	   1.31911324	   8.14962187
H	  22.58048707	  -0.11232738	   7.17662518
C	  19.91372548	   0.65071116	   6.72459307
H	  21.42369465	   0.94357023	   5.20349121
H	  21.08440503	   2.38151281	   6.16646853
C	  18.71422819	   0.96070663	   5.82407183
H	  19.69883206	   0.99737254	   7.75307173
H	  20.04296395	  -0.44573599	   6.79675872
C	  17.40213526	   0.32784938	   6.29495962
H	  18.93546241	   0.61855201	   4.79537444
H	  18.58602521	   2.05752344	   5.75387855
C	  16.21132804	   0.63413861	   5.38236151
H	  17.17566968	   0.67482254	   7.32085642
H	  17.53162944	  -0.76848794	   6.36950524
C	  14.89774650	  -0.00503374	   5.84158855
H	  16.44219055	   0.29255279	   4.35541690
H	  16.07782630	   1.73048479	   5.31139439
C	  13.71844467	   0.30530307	   4.91832873
H	  14.66484239	   0.33768497	   6.86675039
H	  15.03185177	  -1.10029187	   5.91329580
H	  13.53318749	   1.39121817	   4.85723587
H	  12.78995864	  -0.17101220	   5.27149586
H	  13.90937483	  -0.05357495	   3.89252375
C	  33.71930547	   3.48857805	   7.65609851
H	  32.73898884	   1.66925267	   8.30870920
H	  32.36146511	   3.08417021	   9.29430697
H	  33.89343377	   3.13123429	   6.62340374
C	  35.00926646	   3.33622256	   8.46779487
H	  33.47534208	   4.56401304	   7.56406448
H	  35.24237407	   2.26189747	   8.57784510
H	  34.83924961	   3.71669316	   9.49320668
C	  36.20210315	   4.07351464	   7.84737167
H	  36.44102857	   3.62268374	   6.86542512
C	  38.12340713	   2.73763371	   8.95602583
H	  35.89877487	   5.11467290	   7.63414662
H	  38.33594492	   2.25434215	   7.98279470
H	  37.40382907	   2.07816874	   9.47051569
C	  37.47168844	   4.10539894	   8.71095955
H	  38.20169255	   4.77678338	   8.22748386
C	  39.41541306	   2.79238581	   9.78718889
H	  37.23303053	   4.57044029	   9.68680095
H	  39.68970642	   1.76528058	  10.08847454
H	  39.21588945	   3.33973166	  10.72803387
C	  40.61486488	   3.42937977	   9.07502873
H	  40.82325927	   2.86704077	   8.14491915
C	  41.88311073	   3.47389728	   9.93330021
H	  40.36397839	   4.45738638	   8.75728721
H	  42.13838250	   2.44956217	  10.26524934
H	  41.67811086	   4.04753148	  10.85710063
C	  43.09066285	   4.08688268	   9.21690097
H	  43.30449131	   3.50364390	   8.30224163
C	  44.34670685	   4.15033893	  10.08785014
H	  42.83044775	   5.10468110	   8.87180000
H	  44.65588131	   3.14442246	  10.41921429
H	  44.17483818	   4.75645019	  10.99351063
H	  45.19471789	   4.59662318	   9.54422346