86
-1.1019869882279297e+03 frame 339   xyz file generated by TeraChem
C	  31.51407569	   3.13733204	   7.35220049
C	  30.20644420	   2.67241026	   7.99983862
C	  32.71833525	   3.12383991	   8.29788596
H	  31.37962355	   4.15802353	   6.94709567
H	  31.73165537	   2.49375861	   6.47918652
C	  29.00377339	   2.72715179	   7.05243682
H	  29.99791396	   3.28942159	   8.89396608
H	  30.33276855	   1.63738333	   8.36997016
C	  27.71708451	   2.15123651	   7.65022605
H	  29.24875622	   2.17834461	   6.12330071
H	  28.82979338	   3.77527954	   6.74413240
C	  26.50183411	   2.26758554	   6.72484500
H	  27.49422658	   2.66139332	   8.60642712
H	  27.88243991	   1.08813272	   7.90787435
C	  25.23401174	   1.61434600	   7.28330145
H	  26.74347318	   1.81432932	   5.74470953
H	  26.30328518	   3.33662443	   6.52032469
C	  23.99957466	   1.81454364	   6.39883127
H	  25.02624670	   2.01877194	   8.29210189
H	  25.41451412	   0.53192897	   7.42431113
C	  22.73589698	   1.13150580	   6.93050359
H	  24.21556960	   1.44226489	   5.37953544
H	  23.80681020	   2.89840647	   6.28792964
C	  21.49042454	   1.39827108	   6.07947278
H	  22.54630061	   1.46858973	   7.96722285
H	  22.90923740	   0.04067281	   6.99576030
C	  20.22350633	   0.71584499	   6.60381500
H	  21.68098950	   1.06896178	   5.04051592
H	  21.31796339	   2.48978523	   6.02173028
C	  18.97423850	   1.00667734	   5.76651088
H	  20.04294083	   1.03433395	   7.64794004
H	  20.38808039	  -0.37745936	   6.64745639
C	  17.70708446	   0.32651670	   6.29321705
H	  19.15285652	   0.68861712	   4.72186791
H	  18.81095024	   2.10021854	   5.72398156
C	  16.45626890	   0.61465995	   5.45795085
H	  17.52852335	   0.64552578	   7.33766174
H	  17.87190571	  -0.76671360	   6.33736120
C	  15.19232521	  -0.07131060	   5.98541614
H	  16.63447899	   0.29802113	   4.41257087
H	  16.28752414	   1.70765065	   5.41635475
C	  13.94449386	   0.22356400	   5.15119005
H	  15.01826549	   0.24322841	   7.03124094
H	  15.36137838	  -1.16340726	   6.02341385
H	  13.72462304	   1.30459995	   5.12787678
H	  13.05659179	  -0.28776915	   5.55630950
H	  14.07190882	  -0.10831010	   4.10661972
C	  34.03277163	   3.51930158	   7.61843241
H	  32.82722610	   2.11426398	   8.73758127
H	  32.52632094	   3.80428510	   9.14864556
H	  34.22756472	   2.82801125	   6.77705158
C	  35.23865705	   3.51765727	   8.56133560
H	  33.92305491	   4.52226111	   7.16459400
H	  35.32401998	   2.52483596	   9.04154571
H	  35.06135685	   4.23533222	   9.38452201
C	  36.56299168	   3.85620811	   7.87083853
H	  36.73888835	   3.13577265	   7.04979558
C	  36.51850756	   0.03268290	  11.82493677
H	  36.48329101	   4.84886618	   7.38846498
H	  36.05134421	  -0.89905359	  11.49347124
H	  35.84623566	   0.82336023	  12.16973324
C	  37.76568855	   3.84419673	   8.81833886
H	  37.59938058	   4.57846034	   9.62927830
C	  37.84175723	   0.19620709	  11.81149844
H	  37.82554988	   2.85720084	   9.31431669
H	  38.51464474	  -0.59438089	  11.46731772
H	  38.30838838	   1.12761908	  12.14430702
C	  39.10030158	   4.14497351	   8.13066024
H	  39.26173151	   3.41615961	   7.31412044
C	  40.29938497	   4.11052578	   9.08261191
H	  39.04816781	   5.13689853	   7.64292594
H	  40.34667628	   3.11817754	   9.56983219
H	  40.13753427	   4.83915765	   9.89947062
C	  41.63969274	   4.40206661	   8.40185220
H	  41.80413798	   3.66843937	   7.59009661
C	  42.83530893	   4.37338981	   9.35836332
H	  41.59077608	   5.39087826	   7.90765532
H	  42.87726598	   3.38879399	   9.86221952
H	  42.67710184	   5.11620773	  10.16324951
C	  44.17906997	   4.64607071	   8.67613412
H	  44.34229986	   3.89251642	   7.88354186
C	  45.36380851	   4.63706699	   9.64347626
H	  44.13331223	   5.62219384	   8.15879445
H	  45.45151323	   3.66598933	  10.16015156
H	  45.25235504	   5.41344340	  10.41952143
H	  46.31544059	   4.82461824	   9.12102534