26
-3.1572192755726257e+02 frame 20   xyz file generated by TeraChem
C	  32.29372042	   2.70053689	   8.19007210
C	  30.95041872	   2.10500896	   8.61564806
H	  33.09648054	   2.44284464	   8.89914002
H	  32.24120247	   3.80105574	   8.13048772
H	  32.59543450	   2.33187045	   7.19495380
C	  29.80946571	   2.44213298	   7.65081759
H	  30.69006350	   2.46530109	   9.62805240
H	  31.04309635	   1.00643524	   8.70058941
C	  28.45522422	   1.85607807	   8.05993149
H	  30.07232056	   2.08211653	   6.63798079
H	  29.72077309	   3.54192500	   7.56505173
C	  27.31791426	   2.19799904	   7.09232678
H	  28.19284076	   2.21578150	   9.07285311
H	  28.54327984	   0.75632035	   8.14455528
C	  25.96343064	   1.61383283	   7.50336131
H	  27.57933753	   1.83696411	   6.07963190
H	  27.23085481	   3.29775318	   7.00661026
C	  24.82109489	   1.95289088	   6.54088825
H	  25.70290979	   1.97409432	   8.51672494
H	  26.05060319	   0.51390027	   7.58887587
C	  23.47728057	   1.36167329	   6.97083086
H	  25.07785650	   1.59065191	   5.52826311
H	  24.73122049	   3.05161632	   6.45483930
H	  23.52687071	   0.26109829	   7.03179052
H	  22.67326630	   1.62071433	   6.26368307
H	  23.17931959	   1.73247378	   7.96631039